* Carry Lookahead Adder Subcircuit

.subckt cla s0 s1 s2 s3 c4 a0 a1 a2 a3 b0 b1 b2 b3 c0
xpgblock p0 p1 p2 p3 g0 g1 g2 g3 a0 a1 a2 a3 b0 b1 b2 b3 pgblock
xclblock c1 c2 c3 c4 p0 p1 p2 p3 g0 g1 g2 g3 c0 clblock
xsumblock s0 s1 s2 s3 p0 p1 p2 p3 c0 c1 c2 c3 sumblock
.ends