* NOT Gate

.subckt not out in1
MN0 out in1 gnd gnd CMOSN W=width_N L={2*LAMBDA}
MP0 out in1 vdd vdd CMOSP W=width_P L={2*LAMBDA}
.ends