* 2-Input OR Gate

.subckt or2 out in1 in2
* 2-Input NOR Gate
MN1 n01 in1 gnd gnd CMOSN W=width_N L={2*LAMBDA}
MN2 n01 in2 gnd gnd CMOSN W=width_N L={2*LAMBDA}
MP1 n01 in1 n02 n02 CMOSP W=width_P L={2*LAMBDA}
MP2 n02 in2 vdd vdd CMOSP W=width_P L={2*LAMBDA}

* NOT Gate
MN3 out n01 gnd gnd CMOSN W=width_N L={2*LAMBDA}
MP3 out n01 vdd vdd CMOSP W=width_P L={2*LAMBDA}
.ends