* 3-Input OR Gate

.subckt or3 out in1 in2 in3
* 3-Input NOR Gate
MN1 n01 in1 gnd gnd CMOSN W=width_N L={2*LAMBDA}
MN2 n01 in2 gnd gnd CMOSN W=width_N L={2*LAMBDA}
MN3 n01 in3 gnd gnd CMOSN W=width_N L={2*LAMBDA}
MP1 n01 in1 n02 n02 CMOSP W=width_P L={2*LAMBDA}
MP2 n02 in2 n03 n03 CMOSP W=width_P L={2*LAMBDA}
MP3 n03 in3 vdd vdd CMOSP W=width_P L={2*LAMBDA}

* NOT Gate
MN4 out n01 gnd gnd CMOSN W=width_N L={2*LAMBDA}
MP4 out n01 vdd vdd CMOSP W=width_P L={2*LAMBDA}
.ends