* Carry Propogate and Carry Generate Block

.subckt pgsub p g a b
xxor21 p a b xor2
xand21 g a b and2
.ends

.subckt pgblock p0 p1 p2 p3 g0 g1 g2 g3 a0 a1 a2 a3 b0 b1 b2 b3
xpg0 p0 g0 a0 b0 pgsub
xpg1 p1 g1 a1 b1 pgsub
xpg2 p2 g2 a2 b2 pgsub
xpg3 p3 g3 a3 b3 pgsub
.ends