* Sum Block

.subckt sumblock s0 s1 s2 s3 p0 p1 p2 p3 c0 c1 c2 c3
xxor21 s0 p0 c0 xor2
xxor22 s1 p1 c1 xor2
xxor23 s2 p2 c2 xor2
xxor24 s3 p3 c3 xor2
.ends